Version 4
SHEET 1 880 680
WIRE 112 32 -208 32
WIRE 256 64 224 64
WIRE 416 64 336 64
WIRE 544 64 496 64
WIRE -208 96 -208 32
WIRE -128 96 -208 96
WIRE 0 96 -48 96
WIRE 256 96 192 96
WIRE 368 96 336 96
WIRE -208 128 -208 96
WIRE 0 128 0 96
WIRE 112 128 112 32
WIRE 192 128 192 96
WIRE 192 128 112 128
WIRE 256 128 192 128
WIRE 368 128 336 128
WIRE 256 160 192 160
WIRE 400 160 336 160
WIRE 192 192 192 160
WIRE 256 192 192 192
WIRE 400 192 400 160
WIRE 192 224 192 192
WIRE 496 224 336 224
WIRE 544 224 544 64
WIRE 544 224 496 224
WIRE -416 240 -416 192
WIRE -320 240 -320 192
WIRE -208 240 -208 208
WIRE 208 256 160 256
WIRE 256 256 208 256
WIRE 432 256 336 256
WIRE 432 272 432 256
WIRE -416 352 -416 320
WIRE -320 352 -320 320
WIRE -208 352 -208 320
WIRE 208 368 208 256
WIRE 432 368 432 352
WIRE 432 368 208 368
FLAG -416 352 0
FLAG -320 352 0
FLAG 0 128 0
FLAG 192 224 0
FLAG 368 96 V-
FLAG 368 128 V+
FLAG 400 192 0
FLAG 496 224 HP_O
FLAG 144 256 BP_O
FLAG 224 64 LP_O
FLAG -320 192 V-
FLAG -416 192 V+
FLAG -208 352 0
SYMBOL AutoGenerated\\UAF42 288 160 R0
SYMATTR InstName U1
SYMBOL voltage -416 224 R0
SYMATTR InstName V1
SYMBOL voltage -320 336 M180
WINDOW 0 24 96 Left 2
WINDOW 3 24 16 Left 2
SYMATTR InstName V2
SYMBOL voltage -208 224 R0
SYMATTR InstName V3
SYMBOL res -224 112 R0
SYMATTR InstName R1
SYMATTR Value 58750
SYMBOL res -32 80 R90
WINDOW 0 0 56 VBottom 2
WINDOW 3 32 56 VTop 2
SYMATTR InstName RQ
SYMATTR Value 814571
SYMBOL res 512 48 R90
WINDOW 0 0 56 VBottom 2
WINDOW 3 32 56 VTop 2
SYMATTR InstName R3
SYMATTR Value 36329.5
SYMBOL res 416 256 R0
SYMATTR InstName R4
SYMATTR Value 36329.5
TEXT -450 376 Left 2 !.ac dec 1000 1k 100k
